// Generated for: spectre
// Generated on: Oct 19 13:53:37 2012
// Design library name: Neural_Net_Proj
// Design cell name: Top_V2_file_adc
// Design view name: schematic
simulator lang=spectre
global 0 vdd!
parameters ltchDelay=8.75e-10 ltchPer=1e-09 ltchPw=2e-10 txsw_wid_3=1 \
    v_d_d=1.2 diffamp_biasI=1e-05 diffpair_biasI=1e-05 res_add=9375.0 \
    res_ntwk=1.16 res_dac_dmp=512 Vbias_diffpair=0.2 txsw_wid_1=7 \
    txsw_wid_2=1 currentRes=1e-05 DAC_b0=1 DAC_b1=2 DAC_b2=4 DAC_b3=8 \
    DAC_b4=16 DAC_b5=32 DAC_b6=64 DAC_b7=128 Len=4.5e-08 N=1 P=2 Wid=2e-07 \
    txsw_wid_4=7 res_adc=10000
include "/home/ecelrc/students/st/cadence/models/spectre/nmos.m"
include "/home/ecelrc/students/st/cadence/models/spectre/pmos.m"
// vnc test
// Library name: Neural_Net_Proj
// Cell name: inputs_weights_file_8pe_i6w8
// View name: schematic
// <RMS 07-27-13> edit to i6 from i5. starting with net5600
subckt inputs_weights_file_8pe_i6w8 i0b0 i0b1 i0b2 i0b3 i0b4 net5600 \ 
	i1b0 i1b1 i1b2 i1b3 i1b4 net5601 \ 
	i2b0 i2b1 i2b2 i2b3 i2b4 net5602 \ 
	i3b0 i3b1 i3b2 i3b3 i3b4 net5603 \ 
	i4b0 i4b1 i4b2 i4b3 i4b4 net5604 \ 
	i5b0 i5b1 i5b2 i5b3 i5b4 net5605 \ 
	i6b0 i6b1 i6b2 i6b3 i6b4 net5606 \
	i7b0 i7b1 i7b2 i7b3 i7b4 net5607 \
	w0b0 w0b1 w0b2 w0b3 w0b4 w0b5 w0b6 w0b7 \
	w1b0 w1b1 w1b2 w1b3 w1b4 w1b5 w1b6 w1b7 \        
 	w2b0 w2b1 w2b2 w2b3 w2b4 w2b5 w2b6 w2b7 \
	w3b0 w3b1 w3b2 w3b3 w3b4 w3b5 w3b6 w3b7 \
	w4b0 w4b1 w4b2 w4b3 w4b4 w4b5 w4b6 w4b7 \
        w5b0 w5b1 w5b2 w5b3 w5b4 w5b5 w5b6 w5b7 \
	w6b0 w6b1 w6b2 w6b3 w6b4 w6b5 w6b6 w6b7 \
	w7b0 w7b1 w7b2 w7b3 w7b4 w7b5 w7b6 w7b7 
    V200 (net5600 0) vsource type=pwl \
        file="/home/ecelrc/students/st/neural_net_proj/inputs-1n-i6w8part/i0b5"
    V201 (net5601 0) vsource type=pwl \
        file="/home/ecelrc/students/st/neural_net_proj/inputs-1n-i6w8part/i1b5"
    V202 (net5602 0) vsource type=pwl \
        file="/home/ecelrc/students/st/neural_net_proj/inputs-1n-i6w8part/i2b5"
    V203 (net5603 0) vsource type=pwl \
        file="/home/ecelrc/students/st/neural_net_proj/inputs-1n-i6w8part/i3b5"
    V204 (net5604 0) vsource type=pwl \
        file="/home/ecelrc/students/st/neural_net_proj/inputs-1n-i6w8part/i4b5"
    V205 (net5605 0) vsource type=pwl \
        file="/home/ecelrc/students/st/neural_net_proj/inputs-1n-i6w8part/i5b5"
    V206 (net5606 0) vsource type=pwl \
        file="/home/ecelrc/students/st/neural_net_proj/inputs-1n-i6w8part/i6b5"
    V207 (net5607 0) vsource type=pwl \
        file="/home/ecelrc/students/st/neural_net_proj/inputs-1n-i6w8part/i7b5"
    V84 (i5b0 0) vsource type=pwl \
        file="/home/ecelrc/students/st/neural_net_proj/inputs-1n-i6w8part/i5b0"
    V83 (i5b3 0) vsource type=pwl \
        file="/home/ecelrc/students/st/neural_net_proj/inputs-1n-i6w8part/i5b3"
    V82 (i5b2 0) vsource type=pwl \
        file="/home/ecelrc/students/st/neural_net_proj/inputs-1n-i6w8part/i5b2"
    V81 (i5b1 0) vsource type=pwl \
        file="/home/ecelrc/students/st/neural_net_proj/inputs-1n-i6w8part/i5b1"
    V80 (i5b4 0) vsource type=pwl \
        file="/home/ecelrc/students/st/neural_net_proj/inputs-1n-i6w8part/i5b4"
    V79 (i4b0 0) vsource type=pwl \
        file="/home/ecelrc/students/st/neural_net_proj/inputs-1n-i6w8part/i4b0"
    V78 (i4b1 0) vsource type=pwl \
        file="/home/ecelrc/students/st/neural_net_proj/inputs-1n-i6w8part/i4b1"
    V77 (i4b2 0) vsource type=pwl \
        file="/home/ecelrc/students/st/neural_net_proj/inputs-1n-i6w8part/i4b2"
    V76 (i4b3 0) vsource type=pwl \
        file="/home/ecelrc/students/st/neural_net_proj/inputs-1n-i6w8part/i4b3"
    V75 (i4b4 0) vsource type=pwl \
        file="/home/ecelrc/students/st/neural_net_proj/inputs-1n-i6w8part/i4b4"
    V74 (i3b0 0) vsource type=pwl \
        file="/home/ecelrc/students/st/neural_net_proj/inputs-1n-i6w8part/i3b0"
    V73 (i3b3 0) vsource type=pwl \
        file="/home/ecelrc/students/st/neural_net_proj/inputs-1n-i6w8part/i3b3"
    V68 (i3b2 0) vsource type=pwl \
        file="/home/ecelrc/students/st/neural_net_proj/inputs-1n-i6w8part/i3b2"
    V67 (i3b1 0) vsource type=pwl \
        file="/home/ecelrc/students/st/neural_net_proj/inputs-1n-i6w8part/i3b1"
    V66 (i3b4 0) vsource type=pwl \
        file="/home/ecelrc/students/st/neural_net_proj/inputs-1n-i6w8part/i3b4"
    V65 (i2b0 0) vsource type=pwl \
        file="/home/ecelrc/students/st/neural_net_proj/inputs-1n-i6w8part/i2b0"
    V64 (i2b1 0) vsource type=pwl \
        file="/home/ecelrc/students/st/neural_net_proj/inputs-1n-i6w8part/i2b1"
    V57 (i2b2 0) vsource type=pwl \
        file="/home/ecelrc/students/st/neural_net_proj/inputs-1n-i6w8part/i2b2"
    V55 (i2b3 0) vsource type=pwl \
        file="/home/ecelrc/students/st/neural_net_proj/inputs-1n-i6w8part/i2b3"
    V48 (i2b4 0) vsource type=pwl \
        file="/home/ecelrc/students/st/neural_net_proj/inputs-1n-i6w8part/i2b4"
    V21 (i0b2 0) vsource type=pwl \
        file="/home/ecelrc/students/st/neural_net_proj/inputs-1n-i6w8part/i0b2"
    V19 (i0b1 0) vsource type=pwl \
        file="/home/ecelrc/students/st/neural_net_proj/inputs-1n-i6w8part/i0b1"
    V11 (i0b0 0) vsource type=pwl \
        file="/home/ecelrc/students/st/neural_net_proj/inputs-1n-i6w8part/i0b0"
    V30 (i1b3 0) vsource type=pwl \
        file="/home/ecelrc/students/st/neural_net_proj/inputs-1n-i6w8part/i1b3"
    V28 (i1b4 0) vsource type=pwl \
        file="/home/ecelrc/students/st/neural_net_proj/inputs-1n-i6w8part/i1b4"
    V2 (i0b4 0) vsource type=pwl \
        file="/home/ecelrc/students/st/neural_net_proj/inputs-1n-i6w8part/i0b4"
    V95 (i7b4 0) vsource type=pwl \
        file="/home/ecelrc/students/st/neural_net_proj/inputs-1n-i6w8part/i7b4"
    V94 (i6b3 0) vsource type=pwl \
        file="/home/ecelrc/students/st/neural_net_proj/inputs-1n-i6w8part/i6b3"
    V42 (w3b3 0) vsource type=pwl \
        file="/home/ecelrc/students/st/neural_net_proj/inputs-1n-i6w8part/w3b3"
    V33 (w4b3 0) vsource type=pwl \
        file="/home/ecelrc/students/st/neural_net_proj/inputs-1n-i6w8part/w4b3"
    V24 (w5b3 0) vsource type=pwl \
        file="/home/ecelrc/students/st/neural_net_proj/inputs-1n-i6w8part/w5b3"
    V14 (w6b3 0) vsource type=pwl \
        file="/home/ecelrc/students/st/neural_net_proj/inputs-1n-i6w8part/w6b3"
    V5 (w7b3 0) vsource type=pwl \
        file="/home/ecelrc/students/st/neural_net_proj/inputs-1n-i6w8part/w7b3"
    V43 (w3b2 0) vsource type=pwl \
        file="/home/ecelrc/students/st/neural_net_proj/inputs-1n-i6w8part/w3b2"
    V34 (w4b2 0) vsource type=pwl \
        file="/home/ecelrc/students/st/neural_net_proj/inputs-1n-i6w8part/w4b2"
    V25 (w5b2 0) vsource type=pwl \
        file="/home/ecelrc/students/st/neural_net_proj/inputs-1n-i6w8part/w5b2"
    V15 (w6b2 0) vsource type=pwl \
        file="/home/ecelrc/students/st/neural_net_proj/inputs-1n-i6w8part/w6b2"
    V7 (w7b2 0) vsource type=pwl \
        file="/home/ecelrc/students/st/neural_net_proj/inputs-1n-i6w8part/w7b2"
    V44 (w3b1 0) vsource type=pwl \
        file="/home/ecelrc/students/st/neural_net_proj/inputs-1n-i6w8part/w3b1"
    V35 (w4b1 0) vsource type=pwl \
        file="/home/ecelrc/students/st/neural_net_proj/inputs-1n-i6w8part/w4b1"
    V26 (w5b1 0) vsource type=pwl \
        file="/home/ecelrc/students/st/neural_net_proj/inputs-1n-i6w8part/w5b1"
    V16 (w6b1 0) vsource type=pwl \
        file="/home/ecelrc/students/st/neural_net_proj/inputs-1n-i6w8part/w6b1"
    V8 (w7b1 0) vsource type=pwl \
        file="/home/ecelrc/students/st/neural_net_proj/inputs-1n-i6w8part/w7b1"
    V45 (w3b0 0) vsource type=pwl \
        file="/home/ecelrc/students/st/neural_net_proj/inputs-1n-i6w8part/w3b0"
    V36 (w4b0 0) vsource type=pwl \
        file="/home/ecelrc/students/st/neural_net_proj/inputs-1n-i6w8part/w4b0"
    V27 (w5b0 0) vsource type=pwl \
        file="/home/ecelrc/students/st/neural_net_proj/inputs-1n-i6w8part/w5b0"
    V18 (w6b0 0) vsource type=pwl \
        file="/home/ecelrc/students/st/neural_net_proj/inputs-1n-i6w8part/w6b0"
    V17 (w7b0 0) vsource type=pwl \
        file="/home/ecelrc/students/st/neural_net_proj/inputs-1n-i6w8part/w7b0"
    V88 (i7b1 0) vsource type=pwl \
        file="/home/ecelrc/students/st/neural_net_proj/inputs-1n-i6w8part/i7b1"
    V93 (i6b2 0) vsource type=pwl \
        file="/home/ecelrc/students/st/neural_net_proj/inputs-1n-i6w8part/i6b2"
    V0 (i0b3 0) vsource type=pwl \
        file="/home/ecelrc/students/st/neural_net_proj/inputs-1n-i6w8part/i0b3"
    V89 (i7b0 0) vsource type=pwl \
        file="/home/ecelrc/students/st/neural_net_proj/inputs-1n-i6w8part/i7b0"
    V90 (i6b4 0) vsource type=pwl \
        file="/home/ecelrc/students/st/neural_net_proj/inputs-1n-i6w8part/i6b4"
    V86 (i7b3 0) vsource type=pwl \
        file="/home/ecelrc/students/st/neural_net_proj/inputs-1n-i6w8part/i7b3"
    V91 (i6b0 0) vsource type=pwl \
        file="/home/ecelrc/students/st/neural_net_proj/inputs-1n-i6w8part/i6b0"
    V87 (i7b2 0) vsource type=pwl \
        file="/home/ecelrc/students/st/neural_net_proj/inputs-1n-i6w8part/i7b2"
    V92 (i6b1 0) vsource type=pwl \
        file="/home/ecelrc/students/st/neural_net_proj/inputs-1n-i6w8part/i6b1"
    V63 (w1b0 0) vsource type=pwl \
        file="/home/ecelrc/students/st/neural_net_proj/inputs-1n-i6w8part/w1b0"
    V54 (w2b0 0) vsource type=pwl \
        file="/home/ecelrc/students/st/neural_net_proj/inputs-1n-i6w8part/w2b0"
    V72 (w0b0 0) vsource type=pwl \
        file="/home/ecelrc/students/st/neural_net_proj/inputs-1n-i6w8part/w0b0"
    V62 (w1b1 0) vsource type=pwl \
        file="/home/ecelrc/students/st/neural_net_proj/inputs-1n-i6w8part/w1b1"
    V53 (w2b1 0) vsource type=pwl \
        file="/home/ecelrc/students/st/neural_net_proj/inputs-1n-i6w8part/w2b1"
    V71 (w0b1 0) vsource type=pwl \
        file="/home/ecelrc/students/st/neural_net_proj/inputs-1n-i6w8part/w0b1"
    V46 (i1b0 0) vsource type=pwl \
        file="/home/ecelrc/students/st/neural_net_proj/inputs-1n-i6w8part/i1b0"
    V60 (w1b3 0) vsource type=pwl \
        file="/home/ecelrc/students/st/neural_net_proj/inputs-1n-i6w8part/w1b3"
    V51 (w2b3 0) vsource type=pwl \
        file="/home/ecelrc/students/st/neural_net_proj/inputs-1n-i6w8part/w2b3"
    V69 (w0b3 0) vsource type=pwl \
        file="/home/ecelrc/students/st/neural_net_proj/inputs-1n-i6w8part/w0b3"
    V61 (w1b2 0) vsource type=pwl \
        file="/home/ecelrc/students/st/neural_net_proj/inputs-1n-i6w8part/w1b2"
    V52 (w2b2 0) vsource type=pwl \
        file="/home/ecelrc/students/st/neural_net_proj/inputs-1n-i6w8part/w2b2"
    V70 (w0b2 0) vsource type=pwl \
        file="/home/ecelrc/students/st/neural_net_proj/inputs-1n-i6w8part/w0b2"
    V37 (i1b2 0) vsource type=pwl \
        file="/home/ecelrc/students/st/neural_net_proj/inputs-1n-i6w8part/i1b2"
    V39 (i1b1 0) vsource type=pwl \
        file="/home/ecelrc/students/st/neural_net_proj/inputs-1n-i6w8part/i1b1"
	// new code added
    V108 (w7b4 0) vsource type=pwl \
        file="/home/ecelrc/students/st/neural_net_proj/inputs-1n-i6w8part/w7b4"
    V109 (w6b4 0) vsource type=pwl \
        file="/home/ecelrc/students/st/neural_net_proj/inputs-1n-i6w8part/w6b4"
    V110 (w5b4 0) vsource type=pwl \
        file="/home/ecelrc/students/st/neural_net_proj/inputs-1n-i6w8part/w5b4"
    V111 (w4b4 0) vsource type=pwl \
        file="/home/ecelrc/students/st/neural_net_proj/inputs-1n-i6w8part/w4b4"
    V112 (w3b4 0) vsource type=pwl \
        file="/home/ecelrc/students/st/neural_net_proj/inputs-1n-i6w8part/w3b4"
    V113 (w2b4 0) vsource type=pwl \
        file="/home/ecelrc/students/st/neural_net_proj/inputs-1n-i6w8part/w2b4"
    V114 (w1b4 0) vsource type=pwl \
        file="/home/ecelrc/students/st/neural_net_proj/inputs-1n-i6w8part/w1b4"
    V115 (w0b4 0) vsource type=pwl \
        file="/home/ecelrc/students/st/neural_net_proj/inputs-1n-i6w8part/w0b4"
    V116 (w7b5 0) vsource type=pwl \
        file="/home/ecelrc/students/st/neural_net_proj/inputs-1n-i6w8part/w7b5"
    V117 (w6b5 0) vsource type=pwl \
        file="/home/ecelrc/students/st/neural_net_proj/inputs-1n-i6w8part/w6b5"
    V118 (w5b5 0) vsource type=pwl \
        file="/home/ecelrc/students/st/neural_net_proj/inputs-1n-i6w8part/w5b5"
    V119 (w4b5 0) vsource type=pwl \
        file="/home/ecelrc/students/st/neural_net_proj/inputs-1n-i6w8part/w4b5"
    V120 (w3b5 0) vsource type=pwl \
        file="/home/ecelrc/students/st/neural_net_proj/inputs-1n-i6w8part/w3b5"
    V121 (w2b5 0) vsource type=pwl \
        file="/home/ecelrc/students/st/neural_net_proj/inputs-1n-i6w8part/w2b5"
    V122 (w1b5 0) vsource type=pwl \
        file="/home/ecelrc/students/st/neural_net_proj/inputs-1n-i6w8part/w1b5"
    V123 (w0b5 0) vsource type=pwl \
        file="/home/ecelrc/students/st/neural_net_proj/inputs-1n-i6w8part/w0b5"
    V124 (w7b6 0) vsource type=pwl \
        file="/home/ecelrc/students/st/neural_net_proj/inputs-1n-i6w8part/w7b6"
    V125 (w6b6 0) vsource type=pwl \
        file="/home/ecelrc/students/st/neural_net_proj/inputs-1n-i6w8part/w6b6"
    V126 (w5b6 0) vsource type=pwl \
        file="/home/ecelrc/students/st/neural_net_proj/inputs-1n-i6w8part/w5b6"
    V127 (w4b6 0) vsource type=pwl \
        file="/home/ecelrc/students/st/neural_net_proj/inputs-1n-i6w8part/w4b6"
    V128 (w3b6 0) vsource type=pwl \
        file="/home/ecelrc/students/st/neural_net_proj/inputs-1n-i6w8part/w3b6"
    V129 (w2b6 0) vsource type=pwl \
        file="/home/ecelrc/students/st/neural_net_proj/inputs-1n-i6w8part/w2b6"
    V130 (w1b6 0) vsource type=pwl \
        file="/home/ecelrc/students/st/neural_net_proj/inputs-1n-i6w8part/w1b6"
    V131 (w0b6 0) vsource type=pwl \
        file="/home/ecelrc/students/st/neural_net_proj/inputs-1n-i6w8part/w0b6"
    V132 (w7b7 0) vsource type=pwl \
        file="/home/ecelrc/students/st/neural_net_proj/inputs-1n-i6w8part/w7b7"
    V133 (w6b7 0) vsource type=pwl \
        file="/home/ecelrc/students/st/neural_net_proj/inputs-1n-i6w8part/w6b7"
    V134 (w5b7 0) vsource type=pwl \
        file="/home/ecelrc/students/st/neural_net_proj/inputs-1n-i6w8part/w5b7"
    V135 (w4b7 0) vsource type=pwl \
        file="/home/ecelrc/students/st/neural_net_proj/inputs-1n-i6w8part/w4b7"
    V136 (w3b7 0) vsource type=pwl \
        file="/home/ecelrc/students/st/neural_net_proj/inputs-1n-i6w8part/w3b7"
    V137 (w2b7 0) vsource type=pwl \
        file="/home/ecelrc/students/st/neural_net_proj/inputs-1n-i6w8part/w2b7"
    V138 (w1b7 0) vsource type=pwl \
        file="/home/ecelrc/students/st/neural_net_proj/inputs-1n-i6w8part/w1b7"
    V139 (w0b7 0) vsource type=pwl \
        file="/home/ecelrc/students/st/neural_net_proj/inputs-1n-i6w8part/w0b7"
ends inputs_weights_file_8pe_i6w8
// End of subcircuit definition.

// Library name: Neural_Net_Proj
// Cell name: PmosCurrentMirror5b
// View name: schematic
subckt PmosCurrentMirror5b b0Iout b1Iout b2Iout b3Iout b4Iout
    I0 (net8 0) isource type=dc dc=currentRes m=1
    P0 (b0Iout net8 vdd! vdd!) pmos w=P*Wid*DAC_b0 l=Len m=1 region=sat
    P1 (b1Iout net8 vdd! vdd!) pmos w=P*Wid*DAC_b1 l=Len m=1 region=sat
    P2 (b2Iout net8 vdd! vdd!) pmos w=P*Wid*DAC_b2 l=Len m=1 region=sat
    P3 (b3Iout net8 vdd! vdd!) pmos w=P*Wid*DAC_b3 l=Len m=1 region=sat
    P4 (b4Iout net8 vdd! vdd!) pmos w=P*Wid*DAC_b4 l=Len m=1 region=sat
    P8 (net8 net8 vdd! vdd!) pmos w=P*Wid l=Len m=1 region=sat
ends PmosCurrentMirror5b
// End of subcircuit definition.

// Library name: Neural_Net_Proj
// Cell name: PmosCurrentMirror6b
// View name: schematic
subckt PmosCurrentMirror6b b0Iout b1Iout b2Iout b3Iout b4Iout b5Iout
    I0 (net8 0) isource type=dc dc=currentRes m=1
    P0 (b0Iout net8 vdd! vdd!) pmos w=P*Wid*DAC_b0 l=Len m=1 region=sat
    P1 (b1Iout net8 vdd! vdd!) pmos w=P*Wid*DAC_b1 l=Len m=1 region=sat
    P2 (b2Iout net8 vdd! vdd!) pmos w=P*Wid*DAC_b2 l=Len m=1 region=sat
    P3 (b3Iout net8 vdd! vdd!) pmos w=P*Wid*DAC_b3 l=Len m=1 region=sat
    P4 (b4Iout net8 vdd! vdd!) pmos w=P*Wid*DAC_b4 l=Len m=1 region=sat
    P5 (b5Iout net8 vdd! vdd!) pmos w=P*Wid*DAC_b5 l=Len m=1 region=sat
    P8 (net8 net8 vdd! vdd!) pmos w=P*Wid l=Len m=1 region=sat
ends PmosCurrentMirror6b
// End of subcircuit definition.

// Library name: Neural_Net_Proj
// Cell name: Inverter
// View name: schematic
subckt Inverter Vin Vout
    P0 (Vout Vin vdd! vdd!) pmos w=P*Wid l=Len m=1 region=sat
    N0 (Vout Vin 0 0) nmos w=N*Wid l=Len m=1 region=sat
ends Inverter
// End of subcircuit definition.

// Library name: Neural_Net_Proj
// Cell name: TxSwitch1to2
// View name: schematic
subckt TxSwitch1to2 Iin Iout Select \~Iout
    N2 (Iin net9 \~Iout \~Iout) nmos w=N*txsw_wid_1*Wid l=Len m=1 \
        region=sat
    N3 (Iin Select Iout Iout) nmos w=N*txsw_wid_1*Wid l=Len m=1 region=sat
    P2 (\~Iout Select Iin Iin) pmos w=P*txsw_wid_1*Wid l=Len m=1 \
        region=sat
    P3 (Iout net9 Iin Iin) pmos w=P*txsw_wid_1*Wid l=Len m=1 region=sat
    I4 (Select net9) Inverter
ends TxSwitch1to2
// End of subcircuit definition.

// Library name: Neural_Net_Proj
// Cell name: TxSwitch2to1_V3
// View name: schematic
subckt TxSwitch2to1_V3 Iin Iin\~ Iout sel Iout_n
    I0 (Iin\~ Iout_n sel Iout) TxSwitch1to2_3
    I19 (Iin Iout sel Iout_n) TxSwitch1to2_3
ends TxSwitch2to1_V3
// End of subcircuit definition.

// Library name: Neural_Net_Proj
// Cell name: CurrentSteering5b
// View name: schematic
subckt CurrentSteering5b Iout_DAC b0 b0Iin b1 b1Iin b2 b2Iin b3 b3Iin b4 \
        b4Iin \~Iout_DAC
    I4 (b0Iin Iout_DAC b0 \~Iout_DAC) TxSwitch1to2
    I5 (b1Iin Iout_DAC b1 \~Iout_DAC) TxSwitch1to2
    I6 (b2Iin Iout_DAC b2 \~Iout_DAC) TxSwitch1to2
    I7 (b3Iin Iout_DAC b3 \~Iout_DAC) TxSwitch1to2
    I8 (b4Iin Iout_DAC b4 \~Iout_DAC) TxSwitch1to2
ends CurrentSteering5b
// End of subcircuit definition.


// Library name: Neural_Net_Proj
// Cell name: CurrentSteering6b
// View name: schematic
subckt CurrentSteering6b Iout_DAC b0 b0Iin b1 b1Iin b2 b2Iin b3 b3Iin b4 \
        b4Iin b5 b5Iin \~Iout_DAC
    I4 (b0Iin Iout_DAC b0 \~Iout_DAC) TxSwitch1to2
    I5 (b1Iin Iout_DAC b1 \~Iout_DAC) TxSwitch1to2
    I6 (b2Iin Iout_DAC b2 \~Iout_DAC) TxSwitch1to2
    I7 (b3Iin Iout_DAC b3 \~Iout_DAC) TxSwitch1to2
    I8 (b4Iin Iout_DAC b4 \~Iout_DAC) TxSwitch1to2
    I9 (b5Iin Iout_DAC b5 \~Iout_DAC) TxSwitch1to2
ends CurrentSteering6b
// End of subcircuit definition.



// Library name: Neural_Net_Proj
// Cell name: TxSwitch1to2_2
// View name: schematic
subckt TxSwitch1to2_2 Iin Iout Select \~Iout
    N2 (Iin net9 \~Iout \~Iout) nmos w=N*txsw_wid_2*Wid l=Len m=1 \
        region=sat
    N3 (Iin Select Iout Iout) nmos w=N*txsw_wid_2*Wid l=Len m=1 region=sat
    P2 (\~Iout Select Iin Iin) pmos w=P*txsw_wid_2*Wid l=Len m=1 \
        region=sat
    P3 (Iout net9 Iin Iin) pmos w=P*txsw_wid_2*Wid l=Len m=1 region=sat
    I4 (Select net9) Inverter
ends TxSwitch1to2_2
// End of subcircuit definition.

// Library name: Neural_Net_Proj
// Cell name: ResNetwork4b
// View name: schematic
subckt ResNetwork4b Iout_resDAC dacIin w0in w1in w2in w3in
    R15 (net8 net0135) resistor r=res_ntwk m=1
    R14 (net10 net8) resistor r=res_ntwk m=1
    R13 (net12 net10) resistor r=res_ntwk m=1
    R12 (net14 net12) resistor r=res_ntwk m=1
    R11 (net16 net14) resistor r=res_ntwk m=1
    R10 (net18 net16) resistor r=res_ntwk m=1
    R9 (net20 net18) resistor r=res_ntwk m=1
    R8 (net22 net20) resistor r=res_ntwk m=1
    R7 (net24 net22) resistor r=res_ntwk m=1
    R6 (net26 net24) resistor r=res_ntwk m=1
    R5 (net28 net26) resistor r=res_ntwk m=1
    R4 (net30 net28) resistor r=res_ntwk m=1
    R3 (net32 net30) resistor r=res_ntwk m=1
    R2 (net34 net32) resistor r=res_ntwk m=1
    R1 (net36 net34) resistor r=res_ntwk m=1
    R0 (dacIin net36) resistor r=res_ntwk m=1
    V0 (net0135 0) vsource type=dc dc=600.0m
    I15 (Iout_resDAC net48 w3in net44) TxSwitch1to2_2
    I14 (net44 net52 w2in net56) TxSwitch1to2_2
    I13 (net48 net64 w2in net60) TxSwitch1to2_2
    I12 (net52 net80 w1in net76) TxSwitch1to2_2
    I11 (net56 net68 w1in net72) TxSwitch1to2_2
    I10 (net60 net88 w1in net84) TxSwitch1to2_2
    I9 (net64 net96 w1in net92) TxSwitch1to2_2
    I8 (net68 net12 w0in net10) TxSwitch1to2_2
    I7 (net72 net8 w0in net0135) TxSwitch1to2_2
    I6 (net76 net16 w0in net14) TxSwitch1to2_2
    I5 (net80 net20 w0in net18) TxSwitch1to2_2
    I4 (net84 net24 w0in net22) TxSwitch1to2_2
    I3 (net88 net28 w0in net26) TxSwitch1to2_2
    I2 (net92 net32 w0in net30) TxSwitch1to2_2
    I1 (net96 net36 w0in net34) TxSwitch1to2_2
ends ResNetwork4b
// End of subcircuit definition.


// Library name: Neural_Net_Proj
// Cell name: ResNetwork5b
// View name: schematic
subckt ResNetwork5b Iout_resDAC dacIin w0in w1in w2in w3in w4in
R31 (net0106 net0136) resistor r=res_ntwk m=1
R30 (net0108 net0106) resistor r=res_ntwk m=1
R29 (net0110 net0108) resistor r=res_ntwk m=1
R28 (net0137 net0110) resistor r=res_ntwk m=1
R27 (net0114 net0169) resistor r=res_ntwk m=1
R26 (net0116 net0114) resistor r=res_ntwk m=1
R25 (net0118 net0116) resistor r=res_ntwk m=1
R24 (net0120 net0118) resistor r=res_ntwk m=1
R23 (net0122 net0120) resistor r=res_ntwk m=1
R22 (net0124 net0122) resistor r=res_ntwk m=1
R21 (net0126 net0124) resistor r=res_ntwk m=1
R20 (net0128 net0126) resistor r=res_ntwk m=1
R19 (net0130 net0128) resistor r=res_ntwk m=1
R18 (net0132 net0130) resistor r=res_ntwk m=1
R17 (net0134 net0132) resistor r=res_ntwk m=1
R16 (net0136 net0134) resistor r=res_ntwk m=1
R15 (net0138 net0137) resistor r=res_ntwk m=1
R14 (net0140 net0138) resistor r=res_ntwk m=1
R13 (net0142 net0140) resistor r=res_ntwk m=1
R12 (net0144 net0142) resistor r=res_ntwk m=1
R11 (net0146 net0144) resistor r=res_ntwk m=1
R10 (net0148 net0146) resistor r=res_ntwk m=1
R9 (net0150 net0148) resistor r=res_ntwk m=1
R8 (net0152 net0150) resistor r=res_ntwk m=1
R7 (net0154 net0152) resistor r=res_ntwk m=1
R6 (net0156 net0154) resistor r=res_ntwk m=1
R5 (net0158 net0156) resistor r=res_ntwk m=1
R4 (net0160 net0158) resistor r=res_ntwk m=1
R3 (net0162 net0160) resistor r=res_ntwk m=1
R2 (net0164 net0162) resistor r=res_ntwk m=1
R1 (net0166 net0164) resistor r=res_ntwk m=1
R0 (dacIin net0166) resistor r=res_ntwk m=1
V1 (net0169 0) vsource type=dc dc=600.0m
I18 (net32 net0158 w0in net0156) TxSwitch1to2_2
I32 (net20 net0110 w0in net0108) TxSwitch1to2_2
I31 (net8 net0118 w0in net0116) TxSwitch1to2_2
I30 (net0135 net0114 w0in net0169) TxSwitch1to2_2
I29 (net10 net0122 w0in net0120) TxSwitch1to2_2
I28 (net12 net0126 w0in net0124) TxSwitch1to2_2
I27 (net14 net0130 w0in net0128) TxSwitch1to2_2
I26 (net16 net0134 w0in net0132) TxSwitch1to2_2
I25 (net18 net0106 w0in net0136) TxSwitch1to2_2
I24 (net36 net0166 w0in net0164) TxSwitch1to2_2
I23 (net24 net0142 w0in net0140) TxSwitch1to2_2
I22 (net22 net0138 w0in net0137) TxSwitch1to2_2
I21 (net26 net0146 w0in net0144) TxSwitch1to2_2
I20 (net28 net0150 w0in net0148) TxSwitch1to2_2
I19 (net30 net0154 w0in net0152) TxSwitch1to2_2
I17 (net34 net0162 w0in net0160) TxSwitch1to2_2
I15 (Iout_resDAC net48 w4in net44) TxSwitch1to2_2
I14 (net44 net52 w3in net56) TxSwitch1to2_2
I13 (net48 net64 w3in net60) TxSwitch1to2_2
I12 (net52 net80 w2in net76) TxSwitch1to2_2
I11 (net56 net68 w2in net72) TxSwitch1to2_2
I10 (net60 net88 w2in net84) TxSwitch1to2_2
I9 (net64 net96 w2in net92) TxSwitch1to2_2
I8 (net68 net12 w1in net10) TxSwitch1to2_2
I7 (net72 net8 w1in net0135) TxSwitch1to2_2
I6 (net76 net16 w1in net14) TxSwitch1to2_2
I5 (net80 net20 w1in net18) TxSwitch1to2_2
I4 (net84 net24 w1in net22) TxSwitch1to2_2
I3 (net88 net28 w1in net26) TxSwitch1to2_2
I2 (net92 net32 w1in net30) TxSwitch1to2_2
I1 (net96 net36 w1in net34) TxSwitch1to2_2
ends ResNetwork5b
// End of subcircuit definition.

// Library name: Neural_Net_Proj
// Cell name: ResNetwork6b
// View name: schematic
subckt ResNetwork6b Iout_resDAC dacIin w0in w1in w2in w3in w4in w5in
R95 (net0209 net0211) resistor r=res_ntwk m=1
R94 (net0211 net0213) resistor r=res_ntwk m=1
R93 (net0213 net0215) resistor r=res_ntwk m=1
R92 (net0215 net0217) resistor r=res_ntwk m=1
R91 (net0217 net0219) resistor r=res_ntwk m=1
R90 (net0219 net0221) resistor r=res_ntwk m=1
R89 (net0221 net0223) resistor r=res_ntwk m=1
R88 (net0223 net0225) resistor r=res_ntwk m=1
R87 (net0225 net0224) resistor r=res_ntwk m=1
R86 (net0227 net0229) resistor r=res_ntwk m=1
R85 (net0229 net0231) resistor r=res_ntwk m=1
R84 (net0231 net0233) resistor r=res_ntwk m=1
R83 (net0233 net0235) resistor r=res_ntwk m=1
R82 (net0235 net0237) resistor r=res_ntwk m=1
R81 (net0237 net0239) resistor r=res_ntwk m=1
R80 (net0239 net0241) resistor r=res_ntwk m=1
R79 (net0241 net0243) resistor r=res_ntwk m=1
R78 (net0243 net0245) resistor r=res_ntwk m=1
R77 (net0245 net0247) resistor r=res_ntwk m=1
R76 (net0247 net0249) resistor r=res_ntwk m=1
R75 (net0249 net0336) resistor r=res_ntwk m=1
R74 (net0224 net0253) resistor r=res_ntwk m=1
R73 (net0253 net0255) resistor r=res_ntwk m=1
R72 (net0255 net0257) resistor r=res_ntwk m=1
R71 (net0257 net0227) resistor r=res_ntwk m=1
R70 (net0259 net0261) resistor r=res_ntwk m=1
R69 (net0261 net0263) resistor r=res_ntwk m=1
R68 (net0263 net0265) resistor r=res_ntwk m=1
R67 (net0265 net0267) resistor r=res_ntwk m=1
R66 (net0267 net0269) resistor r=res_ntwk m=1
R65 (net0269 net0271) resistor r=res_ntwk m=1
R64 (net0271 net0209) resistor r=res_ntwk m=1
R63 (net0273 net0335) resistor r=res_ntwk m=1
R62 (net0275 net0273) resistor r=res_ntwk m=1
R61 (net0277 net0275) resistor r=res_ntwk m=1
R60 (net0279 net0277) resistor r=res_ntwk m=1
R59 (net0281 net0279) resistor r=res_ntwk m=1
R58 (net0283 net0281) resistor r=res_ntwk m=1
R57 (dacIin net0283) resistor r=res_ntwk m=1
R56 (net0287 net0317) resistor r=res_ntwk m=1
R55 (net0289 net0287) resistor r=res_ntwk m=1
R54 (net0291 net0289) resistor r=res_ntwk m=1
R53 (net0318 net0291) resistor r=res_ntwk m=1
R52 (net0295 net0259) resistor r=res_ntwk m=1
R51 (net0297 net0295) resistor r=res_ntwk m=1
R50 (net0299 net0297) resistor r=res_ntwk m=1
R49 (net0301 net0299) resistor r=res_ntwk m=1
R48 (net0303 net0301) resistor r=res_ntwk m=1
R47 (net0305 net0303) resistor r=res_ntwk m=1
R46 (net0307 net0305) resistor r=res_ntwk m=1
R45 (net0309 net0307) resistor r=res_ntwk m=1
R44 (net0311 net0309) resistor r=res_ntwk m=1
R43 (net0313 net0311) resistor r=res_ntwk m=1
R42 (net0315 net0313) resistor r=res_ntwk m=1
R41 (net0317 net0315) resistor r=res_ntwk m=1
R40 (net0319 net0318) resistor r=res_ntwk m=1
R39 (net0321 net0319) resistor r=res_ntwk m=1
R38 (net0323 net0321) resistor r=res_ntwk m=1
R37 (net0325 net0323) resistor r=res_ntwk m=1
R36 (net0327 net0325) resistor r=res_ntwk m=1
R35 (net0329 net0327) resistor r=res_ntwk m=1
R34 (net0331 net0329) resistor r=res_ntwk m=1
R33 (net0333 net0331) resistor r=res_ntwk m=1
R32 (net0335 net0333) resistor r=res_ntwk m=1
//V3 (net0336 0) vsource type=dc dc=600.0m
V0 (net0336 0) vsource type=dc dc=Vbias_diffpair
I37 (net0158 net0331 w0in net0329) TxSwitch1to2_2
I67 (net0136 net0209 w0in net0211) TxSwitch1to2_2
I66 (net0134 net0213 w0in net0215) TxSwitch1to2_2
I65 (net0132 net0217 w0in net0219) TxSwitch1to2_2
I64 (net0128 net0225 w0in net0224) TxSwitch1to2_2
I63 (net0130 net0221 w0in net0223) TxSwitch1to2_2
I62 (net0124 net0257 w0in net0227) TxSwitch1to2_2
I61 (net0122 net0229 w0in net0231) TxSwitch1to2_2
I60 (net0120 net0233 w0in net0235) TxSwitch1to2_2
I59 (net0118 net0237 w0in net0239) TxSwitch1to2_2
I58 (net0116 net0241 w0in net0243) TxSwitch1to2_2
I57 (net0169 net0249 w0in net0336) TxSwitch1to2_2
I56 (net0114 net0245 w0in net0247) TxSwitch1to2_2
I55 (net0126 net0253 w0in net0255) TxSwitch1to2_2
I54 (net0108 net0265 w0in net0267) TxSwitch1to2_2
I53 (net0106 net0269 w0in net0271) TxSwitch1to2_2
I52 (net0110 net0261 w0in net0263) TxSwitch1to2_2
I51 (net0166 net0283 w0in net0281) TxSwitch1to2_2
I50 (net0162 net0275 w0in net0273) TxSwitch1to2_2
I49 (net0164 net0279 w0in net0277) TxSwitch1to2_2
I48 (net0150 net0291 w0in net0289) TxSwitch1to2_2
I47 (net0138 net0299 w0in net0297) TxSwitch1to2_2
I46 (net0137 net0295 w0in net0259) TxSwitch1to2_2
I45 (net0140 net0303 w0in net0301) TxSwitch1to2_2
I44 (net0142 net0307 w0in net0305) TxSwitch1to2_2
I43 (net0144 net0311 w0in net0309) TxSwitch1to2_2
I42 (net0146 net0315 w0in net0313) TxSwitch1to2_2
I41 (net0148 net0287 w0in net0317) TxSwitch1to2_2
I40 (net0154 net0323 w0in net0321) TxSwitch1to2_2
I39 (net0152 net0319 w0in net0318) TxSwitch1to2_2
I38 (net0156 net0327 w0in net0325) TxSwitch1to2_2
I36 (net0160 net0335 w0in net0333) TxSwitch1to2_2
I32 (net20 net0110 w1in net0108) TxSwitch1to2_2
I31 (net8 net0118 w1in net0116) TxSwitch1to2_2
I30 (net0135 net0114 w1in net0169) TxSwitch1to2_2
I29 (net10 net0122 w1in net0120) TxSwitch1to2_2
I28 (net12 net0126 w1in net0124) TxSwitch1to2_2
I27 (net14 net0130 w1in net0128) TxSwitch1to2_2
I26 (net16 net0134 w1in net0132) TxSwitch1to2_2
I25 (net18 net0106 w1in net0136) TxSwitch1to2_2
I24 (net36 net0166 w1in net0164) TxSwitch1to2_2
I23 (net24 net0142 w1in net0140) TxSwitch1to2_2
I22 (net22 net0138 w1in net0137) TxSwitch1to2_2
I21 (net26 net0146 w1in net0144) TxSwitch1to2_2
I20 (net28 net0150 w1in net0148) TxSwitch1to2_2
I19 (net30 net0154 w1in net0152) TxSwitch1to2_2
I18 (net32 net0158 w1in net0156) TxSwitch1to2_2
I17 (net34 net0162 w1in net0160) TxSwitch1to2_2
I15 (Iout_resDAC net48 w5in net44) TxSwitch1to2_2
I14 (net44 net52 w4in net56) TxSwitch1to2_2
I13 (net48 net64 w4in net60) TxSwitch1to2_2
I12 (net52 net80 w3in net76) TxSwitch1to2_2
I11 (net56 net68 w3in net72) TxSwitch1to2_2
I10 (net60 net88 w3in net84) TxSwitch1to2_2
I9 (net64 net96 w3in net92) TxSwitch1to2_2
I8 (net68 net12 w2in net10) TxSwitch1to2_2
I7 (net72 net8 w2in net0135) TxSwitch1to2_2
I6 (net76 net16 w2in net14) TxSwitch1to2_2
I5 (net80 net20 w2in net18) TxSwitch1to2_2
I4 (net84 net24 w2in net22) TxSwitch1to2_2
I3 (net88 net28 w2in net26) TxSwitch1to2_2
I2 (net92 net32 w2in net30) TxSwitch1to2_2
I1 (net96 net36 w2in net34) TxSwitch1to2_2
ends ResNetwork6b
// End of subcircuit definition.


// Library name: Neural_Net_Proj